# generated using pymatgen
data_NaVPO4F
_symmetry_space_group_name_H-M   'P 1'
_cell_length_a   12.84614500
_cell_length_b   12.68931500
_cell_length_c   10.76235500
_cell_angle_alpha   90.00000000
_cell_angle_beta   90.00000000
_cell_angle_gamma   90.00000000
_symmetry_Int_Tables_number   1
_chemical_formula_structural   NaVPO4F
_chemical_formula_sum   'Na16 V16 P16 O64 F16'
_cell_volume   1754.35836322
_cell_formula_units_Z   16
loop_
 _symmetry_equiv_pos_site_id
 _symmetry_equiv_pos_as_xyz
  1  'x, y, z'
loop_
 _atom_site_type_symbol
 _atom_site_label
 _atom_site_symmetry_multiplicity
 _atom_site_fract_x
 _atom_site_fract_y
 _atom_site_fract_z
 _atom_site_occupancy
  Na  Na0  1  0.85086145  0.39223883  0.27588205  1
  Na  Na1  1  0.14913855  0.10776117  0.77588205  1
  Na  Na2  1  0.35086145  0.35776117  0.27588205  1
  Na  Na3  1  0.64913855  0.14223883  0.77588205  1
  Na  Na4  1  0.59997566  0.38938375  0.06699721  1
  Na  Na5  1  0.40002434  0.11061625  0.56699721  1
  Na  Na6  1  0.09997566  0.36061625  0.06699721  1
  Na  Na7  1  0.90002434  0.13938375  0.56699721  1
  Na  Na8  1  0.85086145  0.89223883  0.27588205  1
  Na  Na9  1  0.14913855  0.60776117  0.77588205  1
  Na  Na10  1  0.35086145  0.85776117  0.27588205  1
  Na  Na11  1  0.64913855  0.64223883  0.77588205  1
  Na  Na12  1  0.59997566  0.88938375  0.06699721  1
  Na  Na13  1  0.40002434  0.61061625  0.56699721  1
  Na  Na14  1  0.09997566  0.86061625  0.06699721  1
  Na  Na15  1  0.90002434  0.63938375  0.56699721  1
  V  V16  1  0.88284476  0.25613783  0.00694830  1
  V  V17  1  0.11715524  0.24386217  0.50694830  1
  V  V18  1  0.38284476  0.49386217  0.00694830  1
  V  V19  1  0.61715524  0.00613783  0.50694830  1
  V  V20  1  0.73396355  0.12941611  0.24343520  1
  V  V21  1  0.26603645  0.37058389  0.74343520  1
  V  V22  1  0.23396355  0.12058389  0.24343520  1
  V  V23  1  0.76603645  0.37941611  0.74343520  1
  V  V24  1  0.88284476  0.75613783  0.00694830  1
  V  V25  1  0.11715524  0.74386217  0.50694830  1
  V  V26  1  0.38284476  0.99386217  0.00694830  1
  V  V27  1  0.61715524  0.50613783  0.50694830  1
  V  V28  1  0.73396355  0.62941611  0.24343520  1
  V  V29  1  0.26603645  0.87058389  0.74343520  1
  V  V30  1  0.23396355  0.62058389  0.24343520  1
  V  V31  1  0.76603645  0.87941611  0.74343520  1
  P  P32  1  0.98464861  0.16771565  0.26626873  1
  P  P33  1  0.01535139  0.33228435  0.76626873  1
  P  P34  1  0.48464861  0.08228435  0.26626873  1
  P  P35  1  0.51535139  0.41771565  0.76626873  1
  P  P36  1  0.68544857  0.25730465  0.50115109  1
  P  P37  1  0.31455143  0.24269535  0.00115109  1
  P  P38  1  0.18544857  0.49269535  0.50115109  1
  P  P39  1  0.81455143  0.00730465  0.00115109  1
  P  P40  1  0.98464861  0.66771565  0.26626873  1
  P  P41  1  0.01535139  0.83228435  0.76626873  1
  P  P42  1  0.48464861  0.58228435  0.26626873  1
  P  P43  1  0.51535139  0.91771565  0.76626873  1
  P  P44  1  0.68544857  0.75730465  0.50115109  1
  P  P45  1  0.31455143  0.74269535  0.00115109  1
  P  P46  1  0.18544857  0.99269535  0.50115109  1
  P  P47  1  0.81455143  0.50730465  0.00115109  1
  O  O48  1  0.97045700  0.25865328  0.16986983  1
  O  O49  1  0.02954300  0.24134672  0.66986983  1
  O  O50  1  0.47045700  0.49134672  0.16986983  1
  O  O51  1  0.52954300  0.00865328  0.66986983  1
  O  O52  1  0.99339200  0.22204838  0.39660789  1
  O  O53  1  0.00660800  0.27795162  0.89660789  1
  O  O54  1  0.49339200  0.02795162  0.39660789  1
  O  O55  1  0.50660800  0.47204838  0.89660789  1
  O  O56  1  0.88737000  0.09501354  0.26945295  1
  O  O57  1  0.11263000  0.40498646  0.76945295  1
  O  O58  1  0.38737000  0.15498646  0.26945295  1
  O  O59  1  0.61263000  0.34501354  0.76945295  1
  O  O60  1  0.08029215  0.09901960  0.23488908  1
  O  O61  1  0.91970785  0.40098040  0.73488908  1
  O  O62  1  0.58029215  0.15098040  0.23488908  1
  O  O63  1  0.41970785  0.34901960  0.73488908  1
  O  O64  1  0.61747728  0.16126620  0.53743895  1
  O  O65  1  0.38252272  0.33873380  0.03743895  1
  O  O66  1  0.11747728  0.08873380  0.53743895  1
  O  O67  1  0.88252272  0.41126620  0.03743895  1
  O  O68  1  0.61225411  0.35236350  0.49157640  1
  O  O69  1  0.38774589  0.14763650  0.99157640  1
  O  O70  1  0.11225411  0.39763650  0.49157640  1
  O  O71  1  0.88774589  0.10236350  0.99157640  1
  O  O72  1  0.76907542  0.27084063  0.60590581  1
  O  O73  1  0.23092458  0.22915937  0.10590581  1
  O  O74  1  0.26907542  0.47915937  0.60590581  1
  O  O75  1  0.73092458  0.02084063  0.10590581  1
  O  O76  1  0.74650400  0.23960731  0.37821093  1
  O  O77  1  0.25349600  0.26039269  0.87821093  1
  O  O78  1  0.24650400  0.01039269  0.37821093  1
  O  O79  1  0.75349600  0.48960731  0.87821093  1
  O  O80  1  0.97045700  0.75865328  0.16986983  1
  O  O81  1  0.02954300  0.74134672  0.66986983  1
  O  O82  1  0.47045700  0.99134672  0.16986983  1
  O  O83  1  0.52954300  0.50865328  0.66986983  1
  O  O84  1  0.99339200  0.72204838  0.39660789  1
  O  O85  1  0.00660800  0.77795162  0.89660789  1
  O  O86  1  0.49339200  0.52795162  0.39660789  1
  O  O87  1  0.50660800  0.97204838  0.89660789  1
  O  O88  1  0.88737000  0.59501354  0.26945295  1
  O  O89  1  0.11263000  0.90498646  0.76945295  1
  O  O90  1  0.38737000  0.65498646  0.26945295  1
  O  O91  1  0.61263000  0.84501354  0.76945295  1
  O  O92  1  0.08029215  0.59901960  0.23488908  1
  O  O93  1  0.91970785  0.90098040  0.73488908  1
  O  O94  1  0.58029215  0.65098040  0.23488908  1
  O  O95  1  0.41970785  0.84901960  0.73488908  1
  O  O96  1  0.61747728  0.66126620  0.53743895  1
  O  O97  1  0.38252272  0.83873380  0.03743895  1
  O  O98  1  0.11747728  0.58873380  0.53743895  1
  O  O99  1  0.88252272  0.91126620  0.03743895  1
  O  O100  1  0.61225411  0.85236350  0.49157640  1
  O  O101  1  0.38774589  0.64763650  0.99157640  1
  O  O102  1  0.11225411  0.89763650  0.49157640  1
  O  O103  1  0.88774589  0.60236350  0.99157640  1
  O  O104  1  0.76907542  0.77084063  0.60590581  1
  O  O105  1  0.23092458  0.72915937  0.10590581  1
  O  O106  1  0.26907542  0.97915937  0.60590581  1
  O  O107  1  0.73092458  0.52084063  0.10590581  1
  O  O108  1  0.74650400  0.73960731  0.37821093  1
  O  O109  1  0.25349600  0.76039269  0.87821093  1
  O  O110  1  0.24650400  0.51039269  0.37821093  1
  O  O111  1  0.75349600  0.98960731  0.87821093  1
  F  F112  1  0.78193575  0.25667171  0.86268679  1
  F  F113  1  0.21806425  0.24332829  0.36268679  1
  F  F114  1  0.28193575  0.49332829  0.86268679  1
  F  F115  1  0.71806425  0.00667171  0.36268679  1
  F  F116  1  0.75355030  0.25100265  0.11889587  1
  F  F117  1  0.24644970  0.24899735  0.61889587  1
  F  F118  1  0.25355030  0.49899735  0.11889587  1
  F  F119  1  0.74644970  0.00100265  0.61889587  1
  F  F120  1  0.78193575  0.75667171  0.86268679  1
  F  F121  1  0.21806425  0.74332829  0.36268679  1
  F  F122  1  0.28193575  0.99332829  0.86268679  1
  F  F123  1  0.71806425  0.50667171  0.36268679  1
  F  F124  1  0.75355030  0.75100265  0.11889587  1
  F  F125  1  0.24644970  0.74899735  0.61889587  1
  F  F126  1  0.25355030  0.99899735  0.11889587  1
  F  F127  1  0.74644970  0.50100265  0.61889587  1
loop_
 _atom_site_moment_label
 _atom_site_moment_crystalaxis_x
 _atom_site_moment_crystalaxis_y
 _atom_site_moment_crystalaxis_z
